<?xml version="1.0" encoding="UTF-8"?>
<mule xmlns:ee="http://www.mulesoft.org/schema/mule/ee/core" xmlns:doc="http://www.mulesoft.org/schema/mule/documentation" xmlns="http://www.mulesoft.org/schema/mule/core" xmlns:apikit="http://www.mulesoft.org/schema/mule/mule-apikit" xmlns:http="http://www.mulesoft.org/schema/mule/http" xmlns:xsi="http://www.w3.org/2001/XMLSchema-instance" xsi:schemaLocation="http://www.mulesoft.org/schema/mule/core http://www.mulesoft.org/schema/mule/core/current/mule.xsd http://www.mulesoft.org/schema/mule/http http://www.mulesoft.org/schema/mule/http/current/mule-http.xsd http://www.mulesoft.org/schema/mule/mule-apikit http://www.mulesoft.org/schema/mule/mule-apikit/current/mule-apikit.xsd 
http://www.mulesoft.org/schema/mule/ee/core http://www.mulesoft.org/schema/mule/ee/core/current/mule-ee.xsd">
    <http:listener-config name="httpListenerConfig">
        <http:listener-connection host="0.0.0.0" port="8081" />
    </http:listener-config>
	<flow name="trigger-first-flow-in-dw-2Flow" doc:id="656c9cca-7788-478e-ab38-d8eb7b34283b" >
		<http:listener doc:name="Listener" doc:id="5a906b3d-eac3-456f-a8ae-6b36d73f46f2" path="/triggers" config-ref="httpListenerConfig"/>
		<ee:transform doc:name="lookup" doc:id="25531a8b-7406-43f2-a231-3da9f7aec68e" >
			<ee:message >
				<ee:set-payload ><![CDATA[%dw 2.0
output application/java
---
Mule::lookup('post:\create-profile:application\json:create-profile-1-config', {"employee": { "id": "A007",  "first_name": "Jan", "last_name": "Doe"  }})]]></ee:set-payload>
			</ee:message>
		</ee:transform>
	</flow>
 
 
 </mule>
